test/test_files/input_tests/psse_dc_components.raw
0,    100.00, 33, 0, 1, 60.00
GridDyn PSS/E RAW DC component import test
Two-bus system with PowerModels-compatible two-terminal and VSC DC records
1,'SLACK',230.0000,3,1,1,1,1.000000,0.000000,1.10000,0.90000,1.10000,0.90000
2,'LOAD', 230.0000,1,1,1,1,1.000000,0.000000,1.10000,0.90000,1.10000,0.90000
0 / END OF BUS DATA, BEGIN LOAD DATA
2,'1 ',1,1,1,20.000,5.000,0.000,0.000,0.000,0.000,1,1
0 / END OF LOAD DATA, BEGIN FIXED SHUNT DATA
0 / END OF FIXED SHUNT DATA, BEGIN GENERATOR DATA
1,'1 ',30.000,0.000,100.000,-100.000,1.00000,0,100.000,0.00000,0.10000,0.00000,0.00000,1.00000,1,100.0,100.000,0.000,1,1.0000
0 / END OF GENERATOR DATA, BEGIN BRANCH DATA
1,2,'1 ',0.01000,0.10000,0.00000,100.00,100.00,100.00,0.00000,0.00000,0.00000,0.00000,1,1,1.0,1,1.0000
0 / END OF BRANCH DATA, BEGIN TRANSFORMER DATA
0 / END OF TRANSFORMER DATA, BEGIN AREA DATA
0 / END OF AREA DATA, BEGIN TWO-TERMINAL DC DATA
'TTDC Ln 1',1,0.1000,5.000,500.000,0.000,0.0000,0.00000,I,0.00,20,1.00000
1,2,90.00,18.10,0.0140,0.5780,230.0,0.09772,1.00000,1.00000,1.00000,0.00624,0,0,0,1,0.00000
2,2,90.00,17.40,0.0140,0.5670,230.0,0.07134,1.00000,1.00000,1.00000,0.00625,0,0,0,1,0.00000
0 / END OF TWO-TERMINAL DC DATA, BEGIN VOLTAGE SOURCE CONVERTER DATA
'VSCDC Ln 1',1,0.0000,1,1.0,0,1.0,0,1.0,0,1.0
1,1,1,150.000,1.00000,1000.0000,1.5000,0.00,250.00,1000.00,0.5000,100.00,-100.00,1,100.00
2,2,1,-20.000,1.00000,1000.0000,1.5000,0.00,250.00,1000.00,0.5000,100.00,-100.00,2,100.00
0 / END OF VOLTAGE SOURCE CONVERTER DATA, BEGIN IMPEDANCE CORRECTION DATA
0 / END OF IMPEDANCE CORRECTION DATA, BEGIN MULTI-TERMINAL DC DATA
0 / END OF MULTI-TERMINAL DC DATA, BEGIN MULTI-SECTION LINE DATA
0 / END OF MULTI-SECTION LINE DATA, BEGIN ZONE DATA
0 / END OF ZONE DATA, BEGIN INTER-AREA TRANSFER DATA
0 / END OF INTER-AREA TRANSFER DATA, BEGIN OWNER DATA
0 / END OF OWNER DATA, BEGIN FACTS CONTROL DEVICE DATA
0 / END OF FACTS CONTROL DEVICE DATA, BEGIN SWITCHED SHUNT DATA
0 / END OF SWITCHED SHUNT DATA, BEGIN GNE DEVICE DATA
0 / END OF GNE DEVICE DATA
Q
